ID LUNAR,LANDER
SOL 1
CEND
TITLE = lander_analysis
ECHO = NONE
DISP = ALL
STRESS = ALL
SUBCASE 10
LABEL = LAUNCH
LOAD = 100
SPC = 11
SUBCASE 20
LABEL = LANDING
LOAD = 200
SPC = 21
BEGIN BULK
PARAM,GRDPNT,0
MAT1,1,71.7E+09,26.9E+09,0.33,2810. 
,4.03E+08,4.03E+08,3.31E+08,1
MAT1,2,73.1E+09,27.0E+09,0.33,2840. 
,2.35E+08,2.35E+08,2.0E+08,1
MAT1,3,50.0E+09,27.0E+09,,52798.29 
MAT1,4,50.0E+09,27.0E+09,,9050.48 
MAT1,5,71.7E+09,26.9E+09,0.33,12134.05
PBAR,1,1,0.0046,1.348E-5,6.953E-6,1.381E-5
,0.075,0.05,-0.075,0.05,-0.075,-0.05,0.075,-0.05     
PBAR,2,1,0.0046,1.348E-5,6.953E-6,1.381E-5
,0.075,0.05,-0.075,0.05,-0.075,-0.05,0.075,-0.05      
PBAR,3,1,0.0046,1.348E-5,6.953E-6,1.381E-5
,0.075,0.05,-0.075,0.05,-0.075,-0.05,0.075,-0.05  
PBAR,4,1,0.0046,1.348E-5,6.953E-6,1.381E-5
,0.075,0.05,-0.075,0.05,-0.075,-0.05,0.075,-0.05        
PBAR,5,1,0.0046,1.348E-5,6.953E-6,1.381E-5
,0.075,0.05,-0.075,0.05,-0.075,-0.05,0.075,-0.05        
PBAR,6,1,0.0046,1.348E-5,6.953E-6,1.381E-5
,0.075,0.05,-0.075,0.05,-0.075,-0.05,0.075,-0.05        
PBAR,7,1,0.0046,1.348E-5,6.953E-6,1.381E-5
,0.075,0.05,-0.075,0.05,-0.075,-0.05,0.075,-0.05        
PBAR,8,1,0.0046,1.348E-5,6.953E-6,1.381E-5
,0.075,0.05,-0.075,0.05,-0.075,-0.05,0.075,-0.05        
PBAR,9,1,0.0046,1.348E-5,6.953E-6,1.381E-5
,0.075,0.05,-0.075,0.05,-0.075,-0.05,0.075,-0.05        
PROD,10,1,0.0028      
PROD,11,1,0.0028      
PROD,12,1,0.0028      
PROD,13,1,0.0028   
PROD,14,1,0.0028      
PROD,15,1,0.0028      
PROD,16,1,0.0028      
PROD,17,1,0.0028      
PROD,18,3,0.1      
PROD,19,4,0.1    
PROD,20,5,0.1     
PTRIA2,21,2,0.008     
PTRIA2,22,2,0.008
PQUAD2,23,2,0.008
$
$Pressurized module
$
PLOAD,1,101325.,25,27,34,36
PLOAD,2,101325.,27,31,35,34
PLOAD,3,101325.,31,29,33,35
PLOAD,4,101325.,29,25,36,33
PLOAD,5,101325.,36,34,35,33
PLOAD,6,101325.,25,29,31,27
$
$Subcase 1
$
SPC1,11,123456,26,28,30,32
GRAV,101,0,5.0,0.,0.,-9.81
LOAD,100,1.0,1.0,101,1.0,1,1.0,2
,1.0,3,1.0,4,1.0,5,1.0,6
$
$Subcase 2
$
SPC1,21,123,37
SPC1,21,3,38,39,40
GRAV,201,0,1.0,0.,0.,-9.81
LOAD,200,1.0,1.0,201,1.0,1,1.0,2
,1.0,3,1.0,4,1.0,5,1.0,6
$
GRID,1000,0,0.,0.,100.2,,123456
GRID,1001,0,0.,0.,0.,,123456
POPT,20,0.01,0.95,5,YES
$ Created by Gmsh
GRID,1,0,2.550000,0.00E+00,-0.30000,,456
GRID,2,0,2.550000,0.00E+00,-3.21,,456
GRID,3,0,-2.55000,0.00E+00,-0.30000,,456
GRID,4,0,-2.55000,0.00E+00,-3.21,,456
GRID,5,0,0.00E+00,2.550000,-0.10000,,456
GRID,6,0,0.00E+00,2.550000,-3.57,,456
GRID,7,0,0.00E+00,-2.55000,-0.10000,,456
GRID,8,0,0.00E+00,-2.55000,-3.57,,456
GRID,9,0,1.500000,3.600000,0.00E+00
GRID,10,0,-1.50000,3.600000,0.00E+00
GRID,11,0,-1.50000,-3.60000,0.00E+00
GRID,12,0,1.500000,-3.60000,0.00E+00
GRID,13,0,3.600000,-1.50000,0.00E+00
GRID,14,0,3.600000,1.500000,0.00E+00
GRID,15,0,-3.60000,1.500000,0.00E+00
GRID,16,0,-3.60000,-1.50000,0.00E+00
GRID,17,0,1.500000,3.600000,-3.70000
GRID,18,0,-1.50000,3.600000,-3.70000
GRID,19,0,-1.50000,-3.60000,-3.70000
GRID,20,0,1.500000,-3.60000,-3.70000
GRID,21,0,3.600000,-1.50000,-3.70000
GRID,22,0,3.600000,1.500000,-3.70000
GRID,23,0,-3.60000,1.500000,-3.70000
GRID,24,0,-3.60000,-1.50000,-3.70000
GRID,25,0,1.500000,1.500000,0.00E+00
GRID,26,0,1.500000,1.500000,-3.70000
GRID,27,0,-1.50000,1.500000,0.00E+00
GRID,28,0,-1.50000,1.500000,-3.70000
$ ... 8 like lines cut
GRID,37,0,4.600000,4.600000,-5.70000,,456
GRID,38,0,4.600000,-4.60000,-5.70000,,456
GRID,39,0,-4.60000,4.600000,-5.70000,,456
GRID,40,0,-4.60000,-4.60000,-5.70000,,456
GRID,41,0,3.400000,3.400000,-1.50000,,456
GRID,42,0,-3.40000,3.400000,-1.50000,,456
GRID,43,0,3.400000,-3.40000,-1.50000,,456
GRID,44,0,-3.40000,-3.40000,-1.50000,,456
GRID,45,0,0.00E+00,0.00E+00,0.600000,,456
GRID,46,0,-3.33750,-1.76250,0.00E+00
GRID,47,0,-3.07500,-2.02500,0.00E+00
GRID,48,0,-2.81250,-2.28750,0.00E+00
GRID,49,0,-2.55000,-2.55000,0.00E+00
GRID,50,0,-2.28750,-2.81250,0.00E+00
GRID,51,0,-2.02500,-3.07500,0.00E+00
GRID,52,0,-1.76250,-3.33750,0.00E+00
GRID,53,0,1.125000,-3.60000,0.00E+00
GRID,54,0,0.750000,-3.60000,0.00E+00
GRID,55,0,0.375000,-3.60000,0.00E+00
GRID,56,0,5.50E-12,-3.60000,0.00E+00
GRID,57,0,-0.37500,-3.60000,0.00E+00
GRID,58,0,-0.75000,-3.60000,0.00E+00
GRID,59,0,-1.12500,-3.60000,0.00E+00
GRID,60,0,1.762500,-3.33750,0.00E+00
GRID,61,0,2.025000,-3.07500,0.00E+00
GRID,62,0,2.287500,-2.81250,0.00E+00
GRID,63,0,2.550000,-2.55000,0.00E+00
GRID,64,0,2.812500,-2.28750,0.00E+00
GRID,65,0,3.075000,-2.02500,0.00E+00
$ ... 545 like lines cut
GRID,611,0,-1.65381,0.421641,2.400000,,6
GRID,612,0,-0.49116,-1.29996,2.400000,,6
GRID,613,0,1.247533,-0.63390,2.400000,,6
GRID,614,0,0.570487,0.300100,2.400000,,6
GRID,615,0,-0.49455,0.305457,2.400000,,6
GRID,616,0,-0.89280,1.588709,2.400000,,6
GRID,617,0,0.010984,1.726813,2.400000,,6
GRID,618,0,0.764361,-1.59472,2.400000,,6
GRID,619,0,-1.52908,-0.87813,2.400000,,6
GRID,620,0,0.782396,1.557902,2.400000,,6
GRID,621,0,1.673462,0.444199,2.400000,,6
GRID,622,0,1.168937,0.959043,2.400000,,6
GRID,623,0,1.234417,-1.03294,2.400000,,6
GRID,624,0,-1.01512,0.960377,2.400000,,6
GRID,625,0,-0.97673,-0.99008,2.400000,,6
GRID,626,0,-0.44292,1.580588,2.400000,,6
GRID,627,0,-0.05234,1.306526,2.400000,,6
GRID,628,0,-1.59856,-0.32617,2.400000,,6
GRID,629,0,0.015996,-1.71057,2.400000,,6
GRID,630,0,1.696543,0.006078,2.400000,,6
$ ... 120 like lines cut
CBAR,1,5,16,46,1000
CBAR,2,5,46,47,1000
CBAR,3,5,47,48,1000
CBAR,4,5,48,49,1000
CBAR,5,5,49,50,1000
CBAR,6,5,50,51,1000
CBAR,7,5,51,52,1000
CBAR,8,5,52,11,1000
CBAR,9,5,12,53,1000
CBAR,10,5,53,54,1000
CBAR,11,5,54,55,1000
CBAR,12,5,55,56,1000
CBAR,13,5,56,57,1000
CBAR,14,5,57,58,1000
CBAR,15,5,58,59,1000
CBAR,16,5,59,11,1000
CBAR,17,5,12,60,1000
CBAR,18,5,60,61,1000
CBAR,19,5,61,62,1000
CBAR,20,5,62,63,1000
$ ... 340 like lines cut
CROD,361,19,5,6
CROD,362,18,3,4
CROD,363,19,7,8
CROD,364,18,2,1
CROD,365,14,11,7
CROD,366,14,7,31
CROD,367,14,7,29
CROD,368,14,12,7
CROD,369,14,5,27
CROD,370,14,5,10
CROD,371,14,5,9
CROD,372,14,25,5
CROD,373,16,20,8
CROD,374,16,30,8
CROD,375,16,8,32
CROD,376,16,8,19
CROD,377,16,17,6
CROD,378,16,6,26
CROD,379,16,28,6
CROD,380,16,6,18
$ ... 16 like lines cut
CBAR,397,7,27,359,1000
CBAR,398,7,359,360,1000
CBAR,399,7,360,361,1000
CBAR,400,7,361,362,1000
CBAR,401,7,362,363,1000
CBAR,402,7,363,364,1000
CBAR,403,7,364,25,1000
CBAR,404,7,25,365,1000
CBAR,405,7,365,366,1000
CBAR,406,7,366,367,1000
CBAR,407,7,367,368,1000
CBAR,408,7,368,369,1000
CBAR,409,7,369,370,1000
CBAR,410,7,370,29,1000
CBAR,411,7,29,371,1000
CBAR,412,7,371,372,1000
CBAR,413,7,372,373,1000
CBAR,414,7,373,374,1000
CBAR,415,7,374,375,1000
CBAR,416,7,375,376,1000
$ ... 104 like lines cut
CROD,521,12,12,43
CROD,522,12,43,13
CROD,523,13,21,43
CROD,524,13,43,20
CROD,525,11,43,38
CROD,526,10,21,38
CROD,527,10,38,20
CROD,528,12,14,41
CROD,529,12,41,9
CROD,530,13,22,41
CROD,531,13,41,17
CROD,532,11,41,37
CROD,533,10,37,17
CROD,534,10,22,37
CROD,535,12,10,42
CROD,536,12,42,15
CROD,537,13,18,42
CROD,538,13,42,23
CROD,539,10,23,39
CROD,540,11,39,42
$ ... 12 like lines cut
CQUAD2,553,23,33,443,467,431
CQUAD2,554,23,431,467,468,432
CQUAD2,555,23,432,468,469,433
CQUAD2,556,23,433,469,470,434
CQUAD2,557,23,434,470,471,435
CQUAD2,558,23,435,471,472,436
CQUAD2,559,23,436,472,461,35
CQUAD2,560,23,443,444,473,467
CQUAD2,561,23,467,473,474,468
CQUAD2,562,23,468,474,475,469
CQUAD2,563,23,469,475,476,470
CQUAD2,564,23,470,476,477,471
CQUAD2,565,23,471,477,478,472
CQUAD2,566,23,472,478,462,461
CQUAD2,567,23,444,445,479,473
CQUAD2,568,23,473,479,480,474
CQUAD2,569,23,474,480,481,475
CQUAD2,570,23,475,481,482,476
CQUAD2,571,23,476,482,483,477
CQUAD2,572,23,477,483,484,478
$ ... 176 like lines cut
CTRIA2,749,21,649,675,651
CTRIA2,750,21,649,651,629
CTRIA2,751,21,641,667,642
CTRIA2,752,21,36,680,424
CTRIA2,753,21,420,626,616
CTRIA2,754,21,626,676,616
CTRIA2,755,21,438,628,619
CTRIA2,756,21,655,659,435
CTRIA2,757,21,419,653,34
CTRIA2,758,21,612,659,655
CTRIA2,759,21,641,642,615
CTRIA2,760,21,627,635,634
CTRIA2,761,21,612,655,625
CTRIA2,762,21,623,650,613
CTRIA2,763,21,625,644,612
CTRIA2,764,21,636,638,637
CTRIA2,765,21,638,639,637
CTRIA2,766,21,635,657,634
CTRIA2,767,21,622,668,664
CTRIA2,768,21,622,664,658
$ ... 312 like lines cut
ENDDATA
